LAMMPS (3 Aug 2023 - Development - patch_2Aug2023-695-ged6c603488-modified)
package omp 2
set 2 OpenMP thread(s) per MPI task
using multi-threaded neighbor list subroutines
# bcc iron in a 3d periodic box

clear
package omp 2
set 2 OpenMP thread(s) per MPI task
using multi-threaded neighbor list subroutines
units 		metal
atom_style 	spin

# dimension 	3
boundary 	p p p

# necessary for the serial algorithm (sametag)
atom_modify 	map array

region 		box block -25 25 -25 25 -25 25 units box
create_box	2 box
Created orthogonal box = (-25 -25 -25) to (25 25 25)

lattice		bcc 2.8665
Lattice spacing in x,y,z = 2.8665 2.8665 2.8665
region ns cylinder x 0 0 10 -22.499999999999996 22.499999999999996 units box
create_atoms	1 region ns
Created 1067 atoms
group		Fe type 1
1067 atoms in group Fe

set group Fe type/ratio 2 0.35 250
Setting atom values ...
  373 settings made for type/ratio

group		Ni type 2
373 atoms in group Ni

mass		1 55.845 #Fe
mass		2 58.693 #Ni

set 		group Fe spin 2.2 0 0 1 #Fe
Setting atom values ...
  1067 settings made for spin
set		group Ni spin 0.61 0 0 1 #Ni
Setting atom values ...
  373 settings made for spin

pair_style 	hybrid/overlay eam/alloy spin/exchange 4.0
pair_coeff 	* * eam/alloy ../FeCuNi.eam.alloy Fe Ni
pair_coeff 	1 1 spin/exchange exchange 4.0 0.02726 0.2171 1.841 #FeFe
pair_coeff	1 2 spin/exchange exchange 4.0 0.00782 0.0001 1.37 #FeNi
pair_coeff	2 2 spin/exchange exchange 4.0 0.01066 0.00171 1.01282 #NiNi

neighbor 	0.5 bin
neigh_modify 	every 10 check yes delay 10

comm_style tiled
balance 0.1 rcb
Balancing ...
Hybrid pair style last /omp style eam/alloy
Last active /omp style is pair_style eam/alloy
 rebalancing time: 0.004 seconds
  iteration count = 0
  initial/final maximal load/proc = 323 267
  initial/final imbalance factor  = 1.2108716 1.0009372

timestep 0.001

velocity 	all create 0 4928459 rot yes dist gaussian

compute 	out_mag    all spin
compute 	out_pe     all pe
compute 	out_ke     all ke
compute 	out_temp   all temp
compute     keAtom  all ke/atom
compute     peAtom  all pe/atom
compute     outsp all property/atom spx spy spz sp fmx fmy fmz

variable 	magx 	  equal c_out_mag[1]
variable	magy	  equal c_out_mag[2]
variable 	magz      equal c_out_mag[3]
variable 	magnorm   equal c_out_mag[4]
variable 	emag      equal c_out_mag[5]
variable 	tmag      equal c_out_mag[6]

                     #v_tmagFe #v_tmagNi v_magnorm v_magnormFe v_magnormNi v_emag ke pe etotal press
thermo_style    custom step temp v_tmag v_magx v_magy v_magz v_magnorm ke pe etotal press
thermo          500

fix temperatura all langevin 0 0 1 23136
fix b all langevin/spin 300 0.01 29481
fix c all nve/spin lattice frozen
fix d all momentum 10 linear 1 1 1 angular rescale
fix centrar all recenter INIT INIT INIT

dump 		dumpRun all custom 100000 iron.*.dump type id x y z c_outsp[1] c_outsp[2] c_outsp[3] c_peAtom c_keAtom

run     300000

CITE-CITE-CITE-CITE-CITE-CITE-CITE-CITE-CITE-CITE-CITE-CITE-CITE

Your simulation uses code contributions which should be cited:

- fix nve/spin command: doi:10.1016/j.jcp.2018.06.042

@article{tranchida2018massively,
title={Massively Parallel Symplectic Algorithm for Coupled Magnetic Spin    Dynamics and Molecular Dynamics},
author={Tranchida, J and Plimpton, S J and Thibaudeau, P and Thompson, A P},
journal={Journal of Computational Physics},
volume={372},
pages={406--425},
year={2018},
publisher={Elsevier}
doi={10.1016/j.jcp.2018.06.042}
}

CITE-CITE-CITE-CITE-CITE-CITE-CITE-CITE-CITE-CITE-CITE-CITE-CITE

Hybrid pair style last /omp style eam/alloy
Last active /omp style is pair_style eam/alloy
Step          Temp          v_tmag         v_magx         v_magy         v_magz       v_magnorm        KinEng         PotEng         TotEng         Press
0   0              0              0              0              1              1              0             -4145.2549     -4145.2549     -10898.015
Averages over the last 301 of 601 rows, steps 150000 to 300000:
Temp v_tmag v_magx v_magy v_magz v_magnorm KinEng PotEng TotEng Press
0 775.925 -0.229541 0.0239779 0.230449 0.346434 0 -4117.51 -4117.51 -10898
Loop time of 293.645 on 8 procs for 300000 steps with 1067 atoms
